LTspice 24.0.11 for Windows
Circuit: * C:\Desktop\reserch\IHP_2024\20240613\Draft2.asc
Start Time: Wed Jun 12 15:28:59 2024
solver = Normal
Maximum thread count: 8
tnom = 27
temp = 27
method = modified trap
.OP point found by inspection.
Total elapsed time: 0.156 seconds.

