LTspice 24.0.11 for Windows
Circuit: * C:\Users\wada\Desktop\reserch\IHP_2024\20240613\Draft2.asc
Start Time: Thu Jun 13 14:31:30 2024
solver = Normal
Maximum thread count: 16
tnom = 27
temp = 27
method = modified trap
.OP point found by inspection.
Total elapsed time: 0.057 seconds.

