LTspice 24.0.11 for Windows
Circuit: * C:\Users\wada\Desktop\reserch\IHP_2024\20240628\TIASubCont.asc
Start Time: Thu Jun 27 13:03:09 2024
solver = Normal
Maximum thread count: 16
tnom = 27
temp = 27
method = modified trap
.OP point found by inspection.
Total elapsed time: 0.053 seconds.

