LTspice 24.0.11 for Windows
Circuit: * C:\Desktop\reserch\IHP_2024\20240628\TIASubCont.asc
Start Time: Thu Jun 27 10:24:07 2024
solver = Normal
Maximum thread count: 8
tnom = 27
temp = 27
method = modified trap
.OP point found by inspection.
Total elapsed time: 0.209 seconds.

