LTspice 24.0.11 for Windows
Circuit: * C:\Desktop\reserch\IHP_2024\20240613\Draft2.asc
Start Time: Sat Jun 15 13:45:05 2024
solver = Normal
Maximum thread count: 8
tnom = 27
temp = 27
method = modified trap
Direct Newton iteration for .op point succeeded.
Total elapsed time: 0.048 seconds.

