LTspice 24.0.12 for Windows
Circuit: * E:\GitRepository\reserch\IHP_2024\20240620\TIASubCont.asc
Start Time: Sun Jun 16 11:22:12 2024
solver = Normal
Maximum thread count: 12
tnom = 27
temp = 27
method = modified trap
.OP point found by inspection.
Total elapsed time: 0.037 seconds.

