LTspice 24.0.11 for Windows
Circuit: * C:\Users\wada\Desktop\reserch\IHP_2024\20240620\TIASubCont.asc
Start Time: Thu Jun 20 12:14:12 2024
solver = Normal
Maximum thread count: 16
tnom = 27
temp = 27
method = modified trap
Total elapsed time: 0.043 seconds.

