LTspice 24.0.11 for Windows
Circuit: * C:\Users\wada\Desktop\reserch\IHP_2024\20240620\TIASubCont.asc
Start Time: Wed Jun 19 18:33:29 2024
solver = Normal
Maximum thread count: 16
tnom = 27
temp = 27
method = modified trap
.OP point found by inspection.
Total elapsed time: 0.041 seconds.

