LTspice 24.0.11 for Windows
Circuit: * C:\Users\wada\Desktop\reserch\opcon\2024\desing\Draft2.asc
Start Time: Wed Jun 12 15:20:10 2024
solver = Normal
Maximum thread count: 16
tnom = 27
temp = 27
method = modified trap
.OP point found by inspection.
Total elapsed time: 0.133 seconds.

