LTspice 24.0.11 for Windows
Circuit: * C:\Users\wada\Desktop\reserch\opcon\2024\desing\railtorail.asc
Start Time: Fri Apr 12 18:21:23 2024
m2: all pins shorted together -- ignoring.
m3: all pins shorted together -- ignoring.
Ignoring BSIM parameter XL
Ignoring BSIM parameter XW
Ignoring BSIM parameter HDIF
Ignoring BSIM parameter XL
Ignoring BSIM parameter XW
Ignoring BSIM parameter HDIF
solver = Normal
Maximum thread count: 16
tnom = 27
temp = 27
method = modified trap
WARNING: Less than two connections to node n001.  This node is used by v1.
WARNING: Less than two connections to node n007.  This node is used by e1.
WARNING: Less than two connections to node vshift.  This node is used by v4.
WARNING: Less than two connections to node n016.  This node is used by r4.
Warning: Pd = 0 is less than W.
Warning: Ps = 0 is less than W.
Warning: Pd = 0 is less than W.
Warning: Ps = 0 is less than W.
Warning: Pd = 0 is less than W.
Warning: Ps = 0 is less than W.
Warning: Pd = 0 is less than W.
Warning: Ps = 0 is less than W.
Warning: Pd = 0 is less than W.
Warning: Ps = 0 is less than W.
Warning: Pd = 0 is less than W.
Warning: Ps = 0 is less than W.
Warning: Pd = 0 is less than W.
Warning: Ps = 0 is less than W.
v1: Missing value, assumed 0V @ DC
Total elapsed time: 0.128 seconds.

