Circuit: * C:\Users\LarcH\Desktop\Draft2.asc

Ignoring BSIM parameter XL
Ignoring BSIM parameter XW
Ignoring BSIM parameter XL
Ignoring BSIM parameter XW
Warning: Pd = 0 is less than W.
Warning: Ps = 0 is less than W.
Warning: Pd = 0 is less than W.
Warning: Ps = 0 is less than W.
Warning: Pd = 0 is less than W.
Warning: Ps = 0 is less than W.
Warning: Pd = 0 is less than W.
Warning: Ps = 0 is less than W.
Warning: Pd = 0 is less than W.
Warning: Ps = 0 is less than W.
Warning: Pd = 0 is less than W.
Warning: Ps = 0 is less than W.
Warning: Pd = 0 is less than W.
Warning: Ps = 0 is less than W.
v2: Missing value, assumed 0V @ DC

Date: Wed Sep 27 18:57:11 2023
Total elapsed time: 0.826 seconds.

tnom = 27
temp = 27
method = trap
totiter = 36031
traniter = 0
tranpoints = 0
accept = 0
rejected = 0
matrix size = 23
fillins = 4
solver = Normal
Avg thread counts: 3.0/0.0/1.0/1.0
Matrix Compiler1: 1.50 KB object code size  0.5/0.4/[0.2]
Matrix Compiler2: 2.25 KB object code size  0.4/0.5/[0.1]

